<?xml version="1.0" encoding="UTF-8"?>

<!-- generated on 2025-11-07 00:31:57 by Eclipse SUMO netconvert Version 1.24.0
<netconvertConfiguration xmlns:xsi="http://www.w3.org/2001/XMLSchema-instance" xsi:noNamespaceSchemaLocation="http://sumo.dlr.de/xsd/netconvertConfiguration.xsd">

    <input>
        <node-files value="cross.nod.xml"/>
        <edge-files value="cross.edg.xml"/>
    </input>

    <output>
        <output-file value="cross.net.xml"/>
    </output>

    <processing>
        <geometry.remove value="true"/>
        <roundabouts.guess value="false"/>
    </processing>

    <tls_building>
        <tls.guess value="false"/>
        <tls.default-type value="static"/>
    </tls_building>

    <junctions>
        <no-turnarounds value="true"/>
    </junctions>

    <report>
        <verbose value="true"/>
    </report>

</netconvertConfiguration>
-->

<net version="1.20" junctionCornerDetail="5" limitTurnSpeed="5.50" xmlns:xsi="http://www.w3.org/2001/XMLSchema-instance" xsi:noNamespaceSchemaLocation="http://sumo.dlr.de/xsd/net_file.xsd">

    <location netOffset="100.00,100.00" convBoundary="0.00,0.00,1400.00,1400.00" origBoundary="-100.00,-100.00,1300.00,1300.00" projParameter="!"/>

    <edge id=":j_0_0_0" function="internal">
        <lane id=":j_0_0_0_0" index="0" speed="6.51" length="9.03" shape="295.20,1113.60 294.85,1111.15 293.80,1109.40 292.05,1108.35 289.60,1108.00"/>
    </edge>
    <edge id=":j_0_0_1" function="internal">
        <lane id=":j_0_0_1_0" index="0" speed="13.89" length="27.20" shape="295.20,1113.60 295.20,1086.40"/>
        <lane id=":j_0_0_1_1" index="1" speed="13.89" length="27.20" shape="298.40,1113.60 298.40,1086.40"/>
    </edge>
    <edge id=":j_0_0_3" function="internal">
        <lane id=":j_0_0_3_0" index="0" speed="9.84" length="6.30" shape="298.40,1113.60 299.11,1107.34"/>
    </edge>
    <edge id=":j_0_0_18" function="internal">
        <lane id=":j_0_0_18_0" index="0" speed="9.84" length="15.70" shape="299.11,1107.34 299.15,1106.95 301.40,1102.20 305.15,1099.35 310.40,1098.40"/>
    </edge>
    <edge id=":j_0_0_4" function="internal">
        <lane id=":j_0_0_4_0" index="0" speed="6.51" length="9.03" shape="310.40,1108.00 307.95,1108.35 306.20,1109.40 305.15,1111.15 304.80,1113.60"/>
    </edge>
    <edge id=":j_0_0_5" function="internal">
        <lane id=":j_0_0_5_0" index="0" speed="16.67" length="20.80" shape="310.40,1108.00 289.60,1108.00"/>
        <lane id=":j_0_0_5_1" index="1" speed="16.67" length="20.80" shape="310.40,1104.80 289.60,1104.80"/>
        <lane id=":j_0_0_5_2" index="2" speed="16.67" length="20.80" shape="310.40,1101.60 289.60,1101.60"/>
    </edge>
    <edge id=":j_0_0_8" function="internal">
        <lane id=":j_0_0_8_0" index="0" speed="9.84" length="4.01" shape="310.40,1101.60 306.45,1100.89"/>
    </edge>
    <edge id=":j_0_0_19" function="internal">
        <lane id=":j_0_0_19_0" index="0" speed="9.84" length="17.98" shape="306.45,1100.89 305.15,1100.65 301.40,1097.80 299.15,1093.05 298.40,1086.40"/>
    </edge>
    <edge id=":j_0_0_9" function="internal">
        <lane id=":j_0_0_9_0" index="0" speed="6.51" length="9.03" shape="304.80,1086.40 305.15,1088.85 306.20,1090.60 307.95,1091.65 310.40,1092.00"/>
    </edge>
    <edge id=":j_0_0_10" function="internal">
        <lane id=":j_0_0_10_0" index="0" speed="13.89" length="27.20" shape="304.80,1086.40 304.80,1113.60"/>
        <lane id=":j_0_0_10_1" index="1" speed="13.89" length="27.20" shape="301.60,1086.40 301.60,1113.60"/>
    </edge>
    <edge id=":j_0_0_12" function="internal">
        <lane id=":j_0_0_12_0" index="0" speed="9.84" length="6.30" shape="301.60,1086.40 300.89,1092.66"/>
    </edge>
    <edge id=":j_0_0_20" function="internal">
        <lane id=":j_0_0_20_0" index="0" speed="9.84" length="15.70" shape="300.89,1092.66 300.85,1093.05 298.60,1097.80 294.85,1100.65 289.60,1101.60"/>
    </edge>
    <edge id=":j_0_0_13" function="internal">
        <lane id=":j_0_0_13_0" index="0" speed="6.51" length="9.03" shape="289.60,1092.00 292.05,1091.65 293.80,1090.60 294.85,1088.85 295.20,1086.40"/>
    </edge>
    <edge id=":j_0_0_14" function="internal">
        <lane id=":j_0_0_14_0" index="0" speed="16.67" length="20.80" shape="289.60,1092.00 310.40,1092.00"/>
        <lane id=":j_0_0_14_1" index="1" speed="16.67" length="20.80" shape="289.60,1095.20 310.40,1095.20"/>
        <lane id=":j_0_0_14_2" index="2" speed="16.67" length="20.80" shape="289.60,1098.40 310.40,1098.40"/>
    </edge>
    <edge id=":j_0_0_17" function="internal">
        <lane id=":j_0_0_17_0" index="0" speed="9.84" length="4.01" shape="289.60,1098.40 293.55,1099.11"/>
    </edge>
    <edge id=":j_0_0_21" function="internal">
        <lane id=":j_0_0_21_0" index="0" speed="9.84" length="17.98" shape="293.55,1099.11 294.85,1099.35 298.60,1102.20 300.85,1106.95 301.60,1113.60"/>
    </edge>
    <edge id=":j_0_1_0" function="internal">
        <lane id=":j_0_1_0_0" index="0" speed="6.51" length="9.03" shape="295.20,710.40 294.85,707.95 293.80,706.20 292.05,705.15 289.60,704.80"/>
    </edge>
    <edge id=":j_0_1_1" function="internal">
        <lane id=":j_0_1_1_0" index="0" speed="13.89" length="20.80" shape="295.20,710.40 295.20,689.60"/>
        <lane id=":j_0_1_1_1" index="1" speed="13.89" length="20.80" shape="298.40,710.40 298.40,689.60"/>
    </edge>
    <edge id=":j_0_1_3" function="internal">
        <lane id=":j_0_1_3_0" index="0" speed="9.26" length="5.01" shape="298.40,710.40 299.11,705.44"/>
    </edge>
    <edge id=":j_0_1_16" function="internal">
        <lane id=":j_0_1_16_0" index="0" speed="9.26" length="14.34" shape="299.11,705.44 299.15,705.15 301.40,701.40 305.15,699.15 310.40,698.40"/>
    </edge>
    <edge id=":j_0_1_4" function="internal">
        <lane id=":j_0_1_4_0" index="0" speed="6.51" length="9.03" shape="310.40,704.80 307.95,705.15 306.20,706.20 305.15,707.95 304.80,710.40"/>
    </edge>
    <edge id=":j_0_1_5" function="internal">
        <lane id=":j_0_1_5_0" index="0" speed="13.89" length="20.80" shape="310.40,704.80 289.60,704.80"/>
        <lane id=":j_0_1_5_1" index="1" speed="13.89" length="20.80" shape="310.40,701.60 289.60,701.60"/>
    </edge>
    <edge id=":j_0_1_7" function="internal">
        <lane id=":j_0_1_7_0" index="0" speed="9.26" length="5.01" shape="310.40,701.60 305.44,700.89"/>
    </edge>
    <edge id=":j_0_1_17" function="internal">
        <lane id=":j_0_1_17_0" index="0" speed="9.26" length="14.34" shape="305.44,700.89 305.15,700.85 301.40,698.60 299.15,694.85 298.40,689.60"/>
    </edge>
    <edge id=":j_0_1_8" function="internal">
        <lane id=":j_0_1_8_0" index="0" speed="6.51" length="9.03" shape="304.80,689.60 305.15,692.05 306.20,693.80 307.95,694.85 310.40,695.20"/>
    </edge>
    <edge id=":j_0_1_9" function="internal">
        <lane id=":j_0_1_9_0" index="0" speed="13.89" length="20.80" shape="304.80,689.60 304.80,710.40"/>
        <lane id=":j_0_1_9_1" index="1" speed="13.89" length="20.80" shape="301.60,689.60 301.60,710.40"/>
    </edge>
    <edge id=":j_0_1_11" function="internal">
        <lane id=":j_0_1_11_0" index="0" speed="9.26" length="5.01" shape="301.60,689.60 300.89,694.56"/>
    </edge>
    <edge id=":j_0_1_18" function="internal">
        <lane id=":j_0_1_18_0" index="0" speed="9.26" length="14.34" shape="300.89,694.56 300.85,694.85 298.60,698.60 294.85,700.85 289.60,701.60"/>
    </edge>
    <edge id=":j_0_1_12" function="internal">
        <lane id=":j_0_1_12_0" index="0" speed="6.51" length="9.03" shape="289.60,695.20 292.05,694.85 293.80,693.80 294.85,692.05 295.20,689.60"/>
    </edge>
    <edge id=":j_0_1_13" function="internal">
        <lane id=":j_0_1_13_0" index="0" speed="13.89" length="20.80" shape="289.60,695.20 310.40,695.20"/>
        <lane id=":j_0_1_13_1" index="1" speed="13.89" length="20.80" shape="289.60,698.40 310.40,698.40"/>
    </edge>
    <edge id=":j_0_1_15" function="internal">
        <lane id=":j_0_1_15_0" index="0" speed="9.26" length="5.01" shape="289.60,698.40 294.56,699.11"/>
    </edge>
    <edge id=":j_0_1_19" function="internal">
        <lane id=":j_0_1_19_0" index="0" speed="9.26" length="14.34" shape="294.56,699.11 294.85,699.15 298.60,701.40 300.85,705.15 301.60,710.40"/>
    </edge>
    <edge id=":j_0_2_0" function="internal">
        <lane id=":j_0_2_0_0" index="0" speed="6.51" length="9.03" shape="295.20,307.20 294.85,304.75 293.80,303.00 292.05,301.95 289.60,301.60"/>
    </edge>
    <edge id=":j_0_2_1" function="internal">
        <lane id=":j_0_2_1_0" index="0" speed="13.89" length="14.40" shape="295.20,307.20 295.20,292.80"/>
        <lane id=":j_0_2_1_1" index="1" speed="13.89" length="14.40" shape="298.40,307.20 298.40,292.80"/>
    </edge>
    <edge id=":j_0_2_3" function="internal">
        <lane id=":j_0_2_3_0" index="0" speed="8.67" length="3.71" shape="298.40,307.20 299.11,303.56"/>
    </edge>
    <edge id=":j_0_2_14" function="internal">
        <lane id=":j_0_2_14_0" index="0" speed="8.67" length="13.14" shape="299.11,303.56 299.15,303.35 301.40,300.60 305.15,298.95 310.40,298.40"/>
    </edge>
    <edge id=":j_0_2_4" function="internal">
        <lane id=":j_0_2_4_0" index="0" speed="6.51" length="9.03" shape="310.40,301.60 307.95,301.95 306.20,303.00 305.15,304.75 304.80,307.20"/>
    </edge>
    <edge id=":j_0_2_5" function="internal">
        <lane id=":j_0_2_5_0" index="0" speed="11.11" length="20.80" shape="310.40,301.60 289.60,301.60"/>
    </edge>
    <edge id=":j_0_2_6" function="internal">
        <lane id=":j_0_2_6_0" index="0" speed="8.67" length="5.56" shape="310.40,301.60 305.15,301.05 304.89,300.94"/>
    </edge>
    <edge id=":j_0_2_15" function="internal">
        <lane id=":j_0_2_15_0" index="0" speed="8.67" length="11.29" shape="304.89,300.94 301.40,299.40 299.15,296.65 298.40,292.80"/>
    </edge>
    <edge id=":j_0_2_7" function="internal">
        <lane id=":j_0_2_7_0" index="0" speed="6.51" length="9.03" shape="304.80,292.80 305.15,295.25 306.20,297.00 307.95,298.05 310.40,298.40"/>
    </edge>
    <edge id=":j_0_2_8" function="internal">
        <lane id=":j_0_2_8_0" index="0" speed="13.89" length="14.40" shape="304.80,292.80 304.80,307.20"/>
        <lane id=":j_0_2_8_1" index="1" speed="13.89" length="14.40" shape="301.60,292.80 301.60,307.20"/>
    </edge>
    <edge id=":j_0_2_10" function="internal">
        <lane id=":j_0_2_10_0" index="0" speed="8.67" length="3.71" shape="301.60,292.80 300.89,296.44"/>
    </edge>
    <edge id=":j_0_2_16" function="internal">
        <lane id=":j_0_2_16_0" index="0" speed="8.67" length="13.14" shape="300.89,296.44 300.85,296.65 298.60,299.40 294.85,301.05 289.60,301.60"/>
    </edge>
    <edge id=":j_0_2_11" function="internal">
        <lane id=":j_0_2_11_0" index="0" speed="6.51" length="9.03" shape="289.60,298.40 292.05,298.05 293.80,297.00 294.85,295.25 295.20,292.80"/>
    </edge>
    <edge id=":j_0_2_12" function="internal">
        <lane id=":j_0_2_12_0" index="0" speed="11.11" length="20.80" shape="289.60,298.40 310.40,298.40"/>
    </edge>
    <edge id=":j_0_2_13" function="internal">
        <lane id=":j_0_2_13_0" index="0" speed="8.67" length="5.56" shape="289.60,298.40 294.85,298.95 295.11,299.06"/>
    </edge>
    <edge id=":j_0_2_17" function="internal">
        <lane id=":j_0_2_17_0" index="0" speed="8.67" length="11.29" shape="295.11,299.06 298.60,300.60 300.85,303.35 301.60,307.20"/>
    </edge>
    <edge id=":j_1_0_0" function="internal">
        <lane id=":j_1_0_0_0" index="0" speed="6.51" length="9.03" shape="692.00,1113.60 691.65,1111.15 690.60,1109.40 688.85,1108.35 686.40,1108.00"/>
    </edge>
    <edge id=":j_1_0_1" function="internal">
        <lane id=":j_1_0_1_0" index="0" speed="16.67" length="27.20" shape="692.00,1113.60 692.00,1086.40"/>
        <lane id=":j_1_0_1_1" index="1" speed="16.67" length="27.20" shape="695.20,1113.60 695.20,1086.40"/>
        <lane id=":j_1_0_1_2" index="2" speed="16.67" length="27.20" shape="698.40,1113.60 698.40,1086.40"/>
    </edge>
    <edge id=":j_1_0_4" function="internal">
        <lane id=":j_1_0_4_0" index="0" speed="10.36" length="5.01" shape="698.40,1113.60 699.11,1108.64"/>
    </edge>
    <edge id=":j_1_0_20" function="internal">
        <lane id=":j_1_0_20_0" index="0" speed="10.36" length="19.50" shape="699.11,1108.64 699.35,1106.95 702.20,1102.20 706.95,1099.35 713.60,1098.40"/>
    </edge>
    <edge id=":j_1_0_5" function="internal">
        <lane id=":j_1_0_5_0" index="0" speed="6.51" length="9.03" shape="713.60,1108.00 711.15,1108.35 709.40,1109.40 708.35,1111.15 708.00,1113.60"/>
    </edge>
    <edge id=":j_1_0_6" function="internal">
        <lane id=":j_1_0_6_0" index="0" speed="16.67" length="27.20" shape="713.60,1108.00 686.40,1108.00"/>
        <lane id=":j_1_0_6_1" index="1" speed="16.67" length="27.20" shape="713.60,1104.80 686.40,1104.80"/>
        <lane id=":j_1_0_6_2" index="2" speed="16.67" length="27.20" shape="713.60,1101.60 686.40,1101.60"/>
    </edge>
    <edge id=":j_1_0_9" function="internal">
        <lane id=":j_1_0_9_0" index="0" speed="10.36" length="5.01" shape="713.60,1101.60 708.64,1100.89"/>
    </edge>
    <edge id=":j_1_0_21" function="internal">
        <lane id=":j_1_0_21_0" index="0" speed="10.36" length="19.50" shape="708.64,1100.89 706.95,1100.65 702.20,1097.80 699.35,1093.05 698.40,1086.40"/>
    </edge>
    <edge id=":j_1_0_10" function="internal">
        <lane id=":j_1_0_10_0" index="0" speed="6.51" length="9.03" shape="708.00,1086.40 708.35,1088.85 709.40,1090.60 711.15,1091.65 713.60,1092.00"/>
    </edge>
    <edge id=":j_1_0_11" function="internal">
        <lane id=":j_1_0_11_0" index="0" speed="16.67" length="27.20" shape="708.00,1086.40 708.00,1113.60"/>
        <lane id=":j_1_0_11_1" index="1" speed="16.67" length="27.20" shape="704.80,1086.40 704.80,1113.60"/>
        <lane id=":j_1_0_11_2" index="2" speed="16.67" length="27.20" shape="701.60,1086.40 701.60,1113.60"/>
    </edge>
    <edge id=":j_1_0_14" function="internal">
        <lane id=":j_1_0_14_0" index="0" speed="10.36" length="5.01" shape="701.60,1086.40 700.89,1091.36"/>
    </edge>
    <edge id=":j_1_0_22" function="internal">
        <lane id=":j_1_0_22_0" index="0" speed="10.36" length="19.50" shape="700.89,1091.36 700.65,1093.05 697.80,1097.80 693.05,1100.65 686.40,1101.60"/>
    </edge>
    <edge id=":j_1_0_15" function="internal">
        <lane id=":j_1_0_15_0" index="0" speed="6.51" length="9.03" shape="686.40,1092.00 688.85,1091.65 690.60,1090.60 691.65,1088.85 692.00,1086.40"/>
    </edge>
    <edge id=":j_1_0_16" function="internal">
        <lane id=":j_1_0_16_0" index="0" speed="16.67" length="27.20" shape="686.40,1092.00 713.60,1092.00"/>
        <lane id=":j_1_0_16_1" index="1" speed="16.67" length="27.20" shape="686.40,1095.20 713.60,1095.20"/>
        <lane id=":j_1_0_16_2" index="2" speed="16.67" length="27.20" shape="686.40,1098.40 713.60,1098.40"/>
    </edge>
    <edge id=":j_1_0_19" function="internal">
        <lane id=":j_1_0_19_0" index="0" speed="10.36" length="5.01" shape="686.40,1098.40 691.36,1099.11"/>
    </edge>
    <edge id=":j_1_0_23" function="internal">
        <lane id=":j_1_0_23_0" index="0" speed="10.36" length="19.50" shape="691.36,1099.11 693.05,1099.35 697.80,1102.20 700.65,1106.95 701.60,1113.60"/>
    </edge>
    <edge id=":j_1_1_0" function="internal">
        <lane id=":j_1_1_0_0" index="0" speed="6.51" length="9.03" shape="692.00,710.40 691.65,707.95 690.60,706.20 688.85,705.15 686.40,704.80"/>
    </edge>
    <edge id=":j_1_1_1" function="internal">
        <lane id=":j_1_1_1_0" index="0" speed="16.67" length="20.80" shape="692.00,710.40 692.00,689.60"/>
        <lane id=":j_1_1_1_1" index="1" speed="16.67" length="20.80" shape="695.20,710.40 695.20,689.60"/>
        <lane id=":j_1_1_1_2" index="2" speed="16.67" length="20.80" shape="698.40,710.40 698.40,689.60"/>
    </edge>
    <edge id=":j_1_1_4" function="internal">
        <lane id=":j_1_1_4_0" index="0" speed="9.84" length="4.01" shape="698.40,710.40 699.11,706.45"/>
    </edge>
    <edge id=":j_1_1_18" function="internal">
        <lane id=":j_1_1_18_0" index="0" speed="9.84" length="17.98" shape="699.11,706.45 699.35,705.15 702.20,701.40 706.95,699.15 713.60,698.40"/>
    </edge>
    <edge id=":j_1_1_5" function="internal">
        <lane id=":j_1_1_5_0" index="0" speed="6.51" length="9.03" shape="713.60,704.80 711.15,705.15 709.40,706.20 708.35,707.95 708.00,710.40"/>
    </edge>
    <edge id=":j_1_1_6" function="internal">
        <lane id=":j_1_1_6_0" index="0" speed="13.89" length="27.20" shape="713.60,704.80 686.40,704.80"/>
        <lane id=":j_1_1_6_1" index="1" speed="13.89" length="27.20" shape="713.60,701.60 686.40,701.60"/>
    </edge>
    <edge id=":j_1_1_8" function="internal">
        <lane id=":j_1_1_8_0" index="0" speed="9.84" length="6.30" shape="713.60,701.60 707.34,700.89"/>
    </edge>
    <edge id=":j_1_1_19" function="internal">
        <lane id=":j_1_1_19_0" index="0" speed="9.84" length="15.70" shape="707.34,700.89 706.95,700.85 702.20,698.60 699.35,694.85 698.40,689.60"/>
    </edge>
    <edge id=":j_1_1_9" function="internal">
        <lane id=":j_1_1_9_0" index="0" speed="6.51" length="9.03" shape="708.00,689.60 708.35,692.05 709.40,693.80 711.15,694.85 713.60,695.20"/>
    </edge>
    <edge id=":j_1_1_10" function="internal">
        <lane id=":j_1_1_10_0" index="0" speed="16.67" length="20.80" shape="708.00,689.60 708.00,710.40"/>
        <lane id=":j_1_1_10_1" index="1" speed="16.67" length="20.80" shape="704.80,689.60 704.80,710.40"/>
        <lane id=":j_1_1_10_2" index="2" speed="16.67" length="20.80" shape="701.60,689.60 701.60,710.40"/>
    </edge>
    <edge id=":j_1_1_13" function="internal">
        <lane id=":j_1_1_13_0" index="0" speed="9.84" length="4.01" shape="701.60,689.60 700.89,693.55"/>
    </edge>
    <edge id=":j_1_1_20" function="internal">
        <lane id=":j_1_1_20_0" index="0" speed="9.84" length="17.98" shape="700.89,693.55 700.65,694.85 697.80,698.60 693.05,700.85 686.40,701.60"/>
    </edge>
    <edge id=":j_1_1_14" function="internal">
        <lane id=":j_1_1_14_0" index="0" speed="6.51" length="9.03" shape="686.40,695.20 688.85,694.85 690.60,693.80 691.65,692.05 692.00,689.60"/>
    </edge>
    <edge id=":j_1_1_15" function="internal">
        <lane id=":j_1_1_15_0" index="0" speed="13.89" length="27.20" shape="686.40,695.20 713.60,695.20"/>
        <lane id=":j_1_1_15_1" index="1" speed="13.89" length="27.20" shape="686.40,698.40 713.60,698.40"/>
    </edge>
    <edge id=":j_1_1_17" function="internal">
        <lane id=":j_1_1_17_0" index="0" speed="9.84" length="6.30" shape="686.40,698.40 692.66,699.11"/>
    </edge>
    <edge id=":j_1_1_21" function="internal">
        <lane id=":j_1_1_21_0" index="0" speed="9.84" length="15.70" shape="692.66,699.11 693.05,699.15 697.80,701.40 700.65,705.15 701.60,710.40"/>
    </edge>
    <edge id=":j_1_2_0" function="internal">
        <lane id=":j_1_2_0_0" index="0" speed="6.51" length="9.03" shape="692.00,307.20 691.65,304.75 690.60,303.00 688.85,301.95 686.40,301.60"/>
    </edge>
    <edge id=":j_1_2_1" function="internal">
        <lane id=":j_1_2_1_0" index="0" speed="16.67" length="14.40" shape="692.00,307.20 692.00,292.80"/>
        <lane id=":j_1_2_1_1" index="1" speed="16.67" length="14.40" shape="695.20,307.20 695.20,292.80"/>
        <lane id=":j_1_2_1_2" index="2" speed="16.67" length="14.40" shape="698.40,307.20 698.40,292.80"/>
    </edge>
    <edge id=":j_1_2_4" function="internal">
        <lane id=":j_1_2_4_0" index="0" speed="9.32" length="3.03" shape="698.40,307.20 699.13,304.26"/>
    </edge>
    <edge id=":j_1_2_16" function="internal">
        <lane id=":j_1_2_16_0" index="0" speed="9.32" length="16.60" shape="699.13,304.26 699.35,303.35 702.20,300.60 706.95,298.95 713.60,298.40"/>
    </edge>
    <edge id=":j_1_2_5" function="internal">
        <lane id=":j_1_2_5_0" index="0" speed="6.51" length="9.03" shape="713.60,301.60 711.15,301.95 709.40,303.00 708.35,304.75 708.00,307.20"/>
    </edge>
    <edge id=":j_1_2_6" function="internal">
        <lane id=":j_1_2_6_0" index="0" speed="11.11" length="27.20" shape="713.60,301.60 686.40,301.60"/>
    </edge>
    <edge id=":j_1_2_7" function="internal">
        <lane id=":j_1_2_7_0" index="0" speed="9.32" length="7.05" shape="713.60,301.60 706.95,301.05 706.59,300.92"/>
    </edge>
    <edge id=":j_1_2_17" function="internal">
        <lane id=":j_1_2_17_0" index="0" speed="9.32" length="12.57" shape="706.59,300.92 702.20,299.40 699.35,296.65 698.40,292.80"/>
    </edge>
    <edge id=":j_1_2_8" function="internal">
        <lane id=":j_1_2_8_0" index="0" speed="6.51" length="9.03" shape="708.00,292.80 708.35,295.25 709.40,297.00 711.15,298.05 713.60,298.40"/>
    </edge>
    <edge id=":j_1_2_9" function="internal">
        <lane id=":j_1_2_9_0" index="0" speed="16.67" length="14.40" shape="708.00,292.80 708.00,307.20"/>
        <lane id=":j_1_2_9_1" index="1" speed="16.67" length="14.40" shape="704.80,292.80 704.80,307.20"/>
        <lane id=":j_1_2_9_2" index="2" speed="16.67" length="14.40" shape="701.60,292.80 701.60,307.20"/>
    </edge>
    <edge id=":j_1_2_12" function="internal">
        <lane id=":j_1_2_12_0" index="0" speed="9.32" length="3.03" shape="701.60,292.80 700.87,295.74"/>
    </edge>
    <edge id=":j_1_2_18" function="internal">
        <lane id=":j_1_2_18_0" index="0" speed="9.32" length="16.60" shape="700.87,295.74 700.65,296.65 697.80,299.40 693.05,301.05 686.40,301.60"/>
    </edge>
    <edge id=":j_1_2_13" function="internal">
        <lane id=":j_1_2_13_0" index="0" speed="6.51" length="9.03" shape="686.40,298.40 688.85,298.05 690.60,297.00 691.65,295.25 692.00,292.80"/>
    </edge>
    <edge id=":j_1_2_14" function="internal">
        <lane id=":j_1_2_14_0" index="0" speed="11.11" length="27.20" shape="686.40,298.40 713.60,298.40"/>
    </edge>
    <edge id=":j_1_2_15" function="internal">
        <lane id=":j_1_2_15_0" index="0" speed="9.32" length="7.05" shape="686.40,298.40 693.05,298.95 693.41,299.08"/>
    </edge>
    <edge id=":j_1_2_19" function="internal">
        <lane id=":j_1_2_19_0" index="0" speed="9.32" length="12.57" shape="693.41,299.08 697.80,300.60 700.65,303.35 701.60,307.20"/>
    </edge>
    <edge id=":j_2_0_0" function="internal">
        <lane id=":j_2_0_0_0" index="0" speed="6.51" length="9.03" shape="1098.40,1113.60 1098.05,1111.15 1097.00,1109.40 1095.25,1108.35 1092.80,1108.00"/>
    </edge>
    <edge id=":j_2_0_1" function="internal">
        <lane id=":j_2_0_1_0" index="0" speed="11.11" length="27.20" shape="1098.40,1113.60 1098.40,1086.40"/>
    </edge>
    <edge id=":j_2_0_2" function="internal">
        <lane id=":j_2_0_2_0" index="0" speed="9.32" length="7.05" shape="1098.40,1113.60 1098.95,1106.95 1099.08,1106.59"/>
    </edge>
    <edge id=":j_2_0_16" function="internal">
        <lane id=":j_2_0_16_0" index="0" speed="9.32" length="12.57" shape="1099.08,1106.59 1100.60,1102.20 1103.35,1099.35 1107.20,1098.40"/>
    </edge>
    <edge id=":j_2_0_3" function="internal">
        <lane id=":j_2_0_3_0" index="0" speed="6.51" length="9.03" shape="1107.20,1108.00 1104.75,1108.35 1103.00,1109.40 1101.95,1111.15 1101.60,1113.60"/>
    </edge>
    <edge id=":j_2_0_4" function="internal">
        <lane id=":j_2_0_4_0" index="0" speed="16.67" length="14.40" shape="1107.20,1108.00 1092.80,1108.00"/>
        <lane id=":j_2_0_4_1" index="1" speed="16.67" length="14.40" shape="1107.20,1104.80 1092.80,1104.80"/>
        <lane id=":j_2_0_4_2" index="2" speed="16.67" length="14.40" shape="1107.20,1101.60 1092.80,1101.60"/>
    </edge>
    <edge id=":j_2_0_7" function="internal">
        <lane id=":j_2_0_7_0" index="0" speed="9.32" length="3.03" shape="1107.20,1101.60 1104.26,1100.87"/>
    </edge>
    <edge id=":j_2_0_17" function="internal">
        <lane id=":j_2_0_17_0" index="0" speed="9.32" length="16.60" shape="1104.26,1100.87 1103.35,1100.65 1100.60,1097.80 1098.95,1093.05 1098.40,1086.40"/>
    </edge>
    <edge id=":j_2_0_8" function="internal">
        <lane id=":j_2_0_8_0" index="0" speed="6.51" length="9.03" shape="1101.60,1086.40 1101.95,1088.85 1103.00,1090.60 1104.75,1091.65 1107.20,1092.00"/>
    </edge>
    <edge id=":j_2_0_9" function="internal">
        <lane id=":j_2_0_9_0" index="0" speed="11.11" length="27.20" shape="1101.60,1086.40 1101.60,1113.60"/>
    </edge>
    <edge id=":j_2_0_10" function="internal">
        <lane id=":j_2_0_10_0" index="0" speed="9.32" length="7.05" shape="1101.60,1086.40 1101.05,1093.05 1100.92,1093.41"/>
    </edge>
    <edge id=":j_2_0_18" function="internal">
        <lane id=":j_2_0_18_0" index="0" speed="9.32" length="12.57" shape="1100.92,1093.41 1099.40,1097.80 1096.65,1100.65 1092.80,1101.60"/>
    </edge>
    <edge id=":j_2_0_11" function="internal">
        <lane id=":j_2_0_11_0" index="0" speed="6.51" length="9.03" shape="1092.80,1092.00 1095.25,1091.65 1097.00,1090.60 1098.05,1088.85 1098.40,1086.40"/>
    </edge>
    <edge id=":j_2_0_12" function="internal">
        <lane id=":j_2_0_12_0" index="0" speed="16.67" length="14.40" shape="1092.80,1092.00 1107.20,1092.00"/>
        <lane id=":j_2_0_12_1" index="1" speed="16.67" length="14.40" shape="1092.80,1095.20 1107.20,1095.20"/>
        <lane id=":j_2_0_12_2" index="2" speed="16.67" length="14.40" shape="1092.80,1098.40 1107.20,1098.40"/>
    </edge>
    <edge id=":j_2_0_15" function="internal">
        <lane id=":j_2_0_15_0" index="0" speed="9.32" length="3.03" shape="1092.80,1098.40 1095.74,1099.13"/>
    </edge>
    <edge id=":j_2_0_19" function="internal">
        <lane id=":j_2_0_19_0" index="0" speed="9.32" length="16.60" shape="1095.74,1099.13 1096.65,1099.35 1099.40,1102.20 1101.05,1106.95 1101.60,1113.60"/>
    </edge>
    <edge id=":j_2_1_0" function="internal">
        <lane id=":j_2_1_0_0" index="0" speed="6.51" length="9.03" shape="1098.40,710.40 1098.05,707.95 1097.00,706.20 1095.25,705.15 1092.80,704.80"/>
    </edge>
    <edge id=":j_2_1_1" function="internal">
        <lane id=":j_2_1_1_0" index="0" speed="11.11" length="20.80" shape="1098.40,710.40 1098.40,689.60"/>
    </edge>
    <edge id=":j_2_1_2" function="internal">
        <lane id=":j_2_1_2_0" index="0" speed="8.67" length="5.56" shape="1098.40,710.40 1098.95,705.15 1099.06,704.89"/>
    </edge>
    <edge id=":j_2_1_14" function="internal">
        <lane id=":j_2_1_14_0" index="0" speed="8.67" length="11.29" shape="1099.06,704.89 1100.60,701.40 1103.35,699.15 1107.20,698.40"/>
    </edge>
    <edge id=":j_2_1_3" function="internal">
        <lane id=":j_2_1_3_0" index="0" speed="6.51" length="9.03" shape="1107.20,704.80 1104.75,705.15 1103.00,706.20 1101.95,707.95 1101.60,710.40"/>
    </edge>
    <edge id=":j_2_1_4" function="internal">
        <lane id=":j_2_1_4_0" index="0" speed="13.89" length="14.40" shape="1107.20,704.80 1092.80,704.80"/>
        <lane id=":j_2_1_4_1" index="1" speed="13.89" length="14.40" shape="1107.20,701.60 1092.80,701.60"/>
    </edge>
    <edge id=":j_2_1_6" function="internal">
        <lane id=":j_2_1_6_0" index="0" speed="8.67" length="3.71" shape="1107.20,701.60 1103.56,700.89"/>
    </edge>
    <edge id=":j_2_1_15" function="internal">
        <lane id=":j_2_1_15_0" index="0" speed="8.67" length="13.14" shape="1103.56,700.89 1103.35,700.85 1100.60,698.60 1098.95,694.85 1098.40,689.60"/>
    </edge>
    <edge id=":j_2_1_7" function="internal">
        <lane id=":j_2_1_7_0" index="0" speed="6.51" length="9.03" shape="1101.60,689.60 1101.95,692.05 1103.00,693.80 1104.75,694.85 1107.20,695.20"/>
    </edge>
    <edge id=":j_2_1_8" function="internal">
        <lane id=":j_2_1_8_0" index="0" speed="11.11" length="20.80" shape="1101.60,689.60 1101.60,710.40"/>
    </edge>
    <edge id=":j_2_1_9" function="internal">
        <lane id=":j_2_1_9_0" index="0" speed="8.67" length="5.56" shape="1101.60,689.60 1101.05,694.85 1100.94,695.11"/>
    </edge>
    <edge id=":j_2_1_16" function="internal">
        <lane id=":j_2_1_16_0" index="0" speed="8.67" length="11.29" shape="1100.94,695.11 1099.40,698.60 1096.65,700.85 1092.80,701.60"/>
    </edge>
    <edge id=":j_2_1_10" function="internal">
        <lane id=":j_2_1_10_0" index="0" speed="6.51" length="9.03" shape="1092.80,695.20 1095.25,694.85 1097.00,693.80 1098.05,692.05 1098.40,689.60"/>
    </edge>
    <edge id=":j_2_1_11" function="internal">
        <lane id=":j_2_1_11_0" index="0" speed="13.89" length="14.40" shape="1092.80,695.20 1107.20,695.20"/>
        <lane id=":j_2_1_11_1" index="1" speed="13.89" length="14.40" shape="1092.80,698.40 1107.20,698.40"/>
    </edge>
    <edge id=":j_2_1_13" function="internal">
        <lane id=":j_2_1_13_0" index="0" speed="8.67" length="3.71" shape="1092.80,698.40 1096.44,699.11"/>
    </edge>
    <edge id=":j_2_1_17" function="internal">
        <lane id=":j_2_1_17_0" index="0" speed="8.67" length="13.14" shape="1096.44,699.11 1096.65,699.15 1099.40,701.40 1101.05,705.15 1101.60,710.40"/>
    </edge>
    <edge id=":j_2_2_0" function="internal">
        <lane id=":j_2_2_0_0" index="0" speed="7.33" length="11.73" shape="1098.40,310.40 1098.05,306.55 1097.00,303.80 1095.25,302.15 1092.80,301.60"/>
    </edge>
    <edge id=":j_2_2_1" function="internal">
        <lane id=":j_2_2_1_0" index="0" speed="11.11" length="20.80" shape="1098.40,310.40 1098.40,289.60"/>
    </edge>
    <edge id=":j_2_2_2" function="internal">
        <lane id=":j_2_2_2_0" index="0" speed="8.67" length="5.56" shape="1098.40,310.40 1098.95,305.15 1099.06,304.89"/>
    </edge>
    <edge id=":j_2_2_13" function="internal">
        <lane id=":j_2_2_13_0" index="0" speed="8.67" length="11.29" shape="1099.06,304.89 1100.60,301.40 1103.35,299.15 1107.20,298.40"/>
    </edge>
    <edge id=":j_2_2_3" function="internal">